<?xml version="1.0" encoding="iso-8859-1"?>

<configuration xmlns:xsi="http://www.w3.org/2001/XMLSchema-instance" xsi:noNamespaceSchemaLocation="http://sumo.sf.net/xsd/sumoConfiguration.xsd">

    <input>
        <net-file value="hybrid.net.xml"/>
        <route-files value="hybrid.rou.xml"/>
    </input>

    <time>
        <begin value="0"/>
        <end value="600"/>
        <step-length value="0.1"/>
    </time>

</configuration>
